/*--------------------------------*- C++ -*----------------------------------*\
| =========                 |                                                 |
| \\      /  F ield         | OpenFOAM: The Open Source CFD Toolbox           |
|  \\    /   O peration     | Version:  3.0.1                                 |
|   \\  /    A nd           | Web:      www.OpenFOAM.org                      |
|    \\/     M anipulation  |                                                 |
\*---------------------------------------------------------------------------*/
FoamFile
{
    version     2.0;
    format      ascii;
    class       polyBoundaryMesh;
    location    "constant/polyMesh";
    object      boundary;
}
// * * * * * * * * * * * * * * * * * * * * * * * * * * * * * * * * * * * * * //

9
(
    maxY
    {
        type            patch;
        nFaces          0;
        startFace       17324;
    }
    minX
    {
        type            patch;
        nFaces          0;
        startFace       17324;
    }
    maxX
    {
        type            patch;
        nFaces          0;
        startFace       17324;
    }
    minY
    {
        type            patch;
        nFaces          0;
        startFace       17324;
    }
    minZ
    {
        type            patch;
        nFaces          0;
        startFace       17324;
    }
    maxZ
    {
        type            patch;
        nFaces          0;
        startFace       17324;
    }
    car
    {
        type            wall;
        inGroups        1(wall);
        nFaces          3836;
        startFace       17324;
    }
    procBoundary3to2
    {
        type            processor;
        inGroups        1(processor);
        nFaces          324;
        startFace       21160;
        matchTolerance  0.0001;
        transform       unknown;
        myProcNo        3;
        neighbProcNo    2;
    }
    procBoundary3to1
    {
        type            processor;
        inGroups        1(processor);
        nFaces          283;
        startFace       21484;
        matchTolerance  0.0001;
        transform       unknown;
        myProcNo        3;
        neighbProcNo    1;
    }
)

// ************************************************************************* //
