/*--------------------------------*- C++ -*----------------------------------*\
| =========                 |                                                 |
| \\      /  F ield         | OpenFOAM: The Open Source CFD Toolbox           |
|  \\    /   O peration     | Version:  3.0.1                                 |
|   \\  /    A nd           | Web:      www.OpenFOAM.org                      |
|    \\/     M anipulation  |                                                 |
\*---------------------------------------------------------------------------*/
FoamFile
{
    version     2.0;
    format      ascii;
    class       extendedFeatureEdgeMesh;
    location    "constant/extendedFeatureEdgeMesh";
    object      sedan.extendedFeatureEdgeMesh;
}
// * * * * * * * * * * * * * * * * * * * * * * * * * * * * * * * * * * * * * //

// points

82
(
(0.032499999 0.152389 0.031338599)
(0.032499999 0.154153 0.0140583)
(0.032499999 0.0027966499 0.0113493)
(-0.032499999 0.154153 0.0140583)
(-0.032499999 0.152389 0.031338599)
(-0.032499999 0.0027966499 0.0113493)
(0.032499999 0.105781 0.010123)
(0.032499999 0.117973 0.0100332)
(0.032499999 0.132865 0.0105797)
(0.032499999 0.134386 0.035773098)
(0.032499999 0.12595201 0.036803599)
(0.032499999 0.109908 0.037587401)
(0.032499999 0.0110977 0.041833099)
(0.032499999 0.00358314 0.036198199)
(0.032499999 0.098797701 0.0432279)
(0.032499999 0.0193254 0.046243601)
(0.032499999 0.0930949 0.045922998)
(0.032499999 0.0279941 0.0493607)
(0.032499999 0.084967002 0.049263)
(0.032499999 0.036995299 0.051266201)
(0.032499999 0.080812298 0.050599299)
(0.032499999 0.043175999 0.051973101)
(0.032499999 0.074461199 0.052014299)
(0.032499999 0.055628899 0.052655499)
(0.032499999 0.068238199 0.052675799)
(0.032499999 0.064046003 0.052807499)
(0.032499999 0.14277899 0.0343167)
(0.032499999 0.00124665 0.033315301)
(0.032499999 0.00040276299 0.030036701)
(0.032499999 0.15349799 0.0269567)
(0.032499999 0.000533743 0.0264611)
(0.032499999 0.154153 0.0225299)
(0.032499999 0.00034109899 0.0203797)
(0.032499999 0.154355 0.018314101)
(0.032499999 -1.11022e-19 0.017658001)
(0.032499999 6.4731801e-05 0.0152431)
(0.032499999 0.000315635 0.0141031)
(0.032499999 0.14161 0.0115545)
(0.032499999 0.0010363701 0.0126354)
(0.032499999 0.0055006598 0.0111042)
(0.032499999 0.0212183 0.0102739)
(0.032499999 0.089642197 0.010123)
(0.032499999 0.039904598 0.0094057797)
(0.032499999 0.066079102 0.0094057797)
(-0.032499999 0.117973 0.0100332)
(-0.032499999 0.105781 0.010123)
(-0.032499999 0.132865 0.0105797)
(-0.032499999 0.064046003 0.052807499)
(-0.032499999 0.068238199 0.052675799)
(-0.032499999 0.055628899 0.052655499)
(-0.032499999 0.074461199 0.052014299)
(-0.032499999 0.043175999 0.051973101)
(-0.032499999 0.080812298 0.050599299)
(-0.032499999 0.036995299 0.051266201)
(-0.032499999 0.084967002 0.049263)
(-0.032499999 0.0279941 0.0493607)
(-0.032499999 0.0930949 0.045922998)
(-0.032499999 0.0193254 0.046243601)
(-0.032499999 0.098797701 0.0432279)
(-0.032499999 0.0110977 0.041833099)
(-0.032499999 0.109908 0.037587401)
(-0.032499999 0.00358314 0.036198199)
(-0.032499999 0.12595201 0.036803599)
(-0.032499999 0.134386 0.035773098)
(-0.032499999 0.000315635 0.0141031)
(-0.032499999 6.4731801e-05 0.0152431)
(-0.032499999 -1.11022e-19 0.017658001)
(-0.032499999 0.154355 0.018314101)
(-0.032499999 0.00034109899 0.0203797)
(-0.032499999 0.154153 0.0225299)
(-0.032499999 0.000533743 0.0264611)
(-0.032499999 0.15349799 0.0269567)
(-0.032499999 0.00040276299 0.030036701)
(-0.032499999 0.00124665 0.033315301)
(-0.032499999 0.14277899 0.0343167)
(-0.032499999 0.0010363701 0.0126354)
(-0.032499999 0.14161 0.0115545)
(-0.032499999 0.089642197 0.010123)
(-0.032499999 0.0212183 0.0102739)
(-0.032499999 0.0055006598 0.0111042)
(-0.032499999 0.066079102 0.0094057797)
(-0.032499999 0.039904598 0.0094057797)
)

// edges

85
(
(6 7)
(7 8)
(9 10)
(10 11)
(12 13)
(11 14)
(15 12)
(14 16)
(17 15)
(16 18)
(19 17)
(18 20)
(21 19)
(20 22)
(23 21)
(22 24)
(24 25)
(25 23)
(26 9)
(13 27)
(0 26)
(27 28)
(29 0)
(28 30)
(31 29)
(30 32)
(33 31)
(32 34)
(1 33)
(34 35)
(35 36)
(37 1)
(36 38)
(38 2)
(8 37)
(2 39)
(39 40)
(41 6)
(42 43)
(43 41)
(40 42)
(44 45)
(46 44)
(47 48)
(49 47)
(48 50)
(51 49)
(50 52)
(53 51)
(52 54)
(55 53)
(54 56)
(57 55)
(56 58)
(59 57)
(58 60)
(61 59)
(60 62)
(62 63)
(64 65)
(65 66)
(67 3)
(66 68)
(69 67)
(68 70)
(71 69)
(70 72)
(4 71)
(72 73)
(74 4)
(73 61)
(63 74)
(5 75)
(75 64)
(3 76)
(45 77)
(78 79)
(79 5)
(76 46)
(77 80)
(80 81)
(81 78)
(0 4)
(1 3)
(5 2)
)

// concaveStart mixedStart nonFeatureStart
6 6 6
// internalStart flatStart openStart multipleStart
85 85 85 85
// normals

158
(
(1 0 0)
(0 -0.0073652825 -0.99997288)
(0 0.036672883 -0.99932732)
(1 0 0)
(0 0.12128221 0.99261807)
(1 0 0)
(0 0.04879501 0.99880881)
(1 0 0)
(0 -0.59993049 0.80005213)
(1 -0 0)
(-0 0.4526851 0.89167045)
(1 0 0)
(0 -0.4724549 0.88135485)
(1 0 0)
(-0 0.4272797 0.90411949)
(1 -0 0)
(0 -0.33837035 0.94101302)
(1 0 0)
(-0 0.38009006 0.92494948)
(1 -0 0)
(0 -0.20710435 0.97831886)
(1 0 0)
(-0 0.30618739 0.95197126)
(1 -0 0)
(0 -0.11363136 0.99352298)
(1 -0 0)
(-0 0.21746412 0.97606831)
(1 0 0)
(0 -0.054716281 0.99850194)
(1 -0 0)
(-0 0.10570365 0.99439768)
(1 0 0)
(0 0.031400071 0.9995069)
(0 -0.018055441 0.99983699)
(1 0 0)
(0 0.17097063 0.98527613)
(1 0 0)
(0 -0.77688687 0.6296402)
(1 0 0)
(0 0.29600787 0.9551855)
(1 0 0)
(0 -0.9684346 0.24926779)
(1 0 0)
(0 0.96943492 0.24534861)
(1 0 0)
(0 -0.99932974 -0.036607058)
(1 0 0)
(0 0.98922975 0.14637114)
(1 0 0)
(0 -0.99949864 0.031661693)
(1 0 0)
(0 0.99885405 0.04786012)
(1 0 0)
(0 -0.99223804 0.12435299)
(1 0 0)
(0 0.99887545 -0.047411288)
(1 0 0)
(0 -0.99964094 -0.026795535)
(1 0 0)
(0 -0.97662592 -0.21494606)
(1 0 0)
(0 0.19575518 -0.9806528)
(1 0 0)
(0 -0.89761251 -0.44078541)
(1 0 0)
(0 -0.58993923 -0.80744765)
(1 0 0)
(0 0.11078332 -0.99384458)
(1 0 0)
(0 -0.090273027 -0.99591706)
(1 0 0)
(0 -0.052752452 -0.99860762)
(1 0 0)
(0 0 -1)
(1 0 -0)
(0 0 -1)
(0 0.030424182 -0.99953708)
(1 0 -0)
(0 -0.046407528 -0.99892259)
(-1 0 0)
(-0 -0.0073652825 -0.99997288)
(0 0.036672883 -0.99932732)
(-1 0 -0)
(0 0.031400071 0.9995069)
(0 -0.018055441 0.99983699)
(-1 0 0)
(0 0.10570365 0.99439768)
(-1 0 -0)
(0 -0.054716281 0.99850194)
(-1 0 0)
(0 0.21746412 0.97606831)
(-1 0 -0)
(0 -0.11363136 0.99352298)
(-1 0 0)
(0 0.30618739 0.95197126)
(-1 0 -0)
(0 -0.20710435 0.97831886)
(-1 0 0)
(0 0.38009006 0.92494948)
(-1 0 -0)
(0 -0.33837035 0.94101302)
(-1 0 0)
(0 0.4272797 0.90411949)
(-1 0 -0)
(0 -0.4724549 0.88135485)
(-1 0 0)
(0 0.4526851 0.89167045)
(-1 0 -0)
(0 -0.59993049 0.80005213)
(-1 0 0)
(0 0.04879501 0.99880881)
(-1 0 0)
(0 0.12128221 0.99261807)
(-1 0 0)
(-0 -0.97662592 -0.21494606)
(-1 0 0)
(-0 -0.99964094 -0.026795535)
(-1 0 0)
(0 0.99887545 -0.047411288)
(-1 -0 0)
(0 -0.99223804 0.12435299)
(-1 0 0)
(0 0.99885405 0.04786012)
(-1 -0 0)
(0 -0.99949864 0.031661693)
(-1 0 0)
(0 0.98922975 0.14637114)
(-1 -0 0)
(0 -0.99932974 -0.036607058)
(-1 0 0)
(0 0.96943492 0.24534861)
(-1 -0 0)
(0 -0.9684346 0.24926779)
(-1 0 0)
(-0 0.29600787 0.9551855)
(-1 -0 0)
(0 -0.77688687 0.6296402)
(-1 0 0)
(0 0.17097063 0.98527613)
(-1 0 0)
(-0 -0.58993923 -0.80744765)
(-1 0 0)
(-0 -0.89761251 -0.44078541)
(-1 0 0)
(0 0.19575518 -0.9806528)
(-1 0 0)
(0 0 -1)
(-1 0 0)
(0 -0.052752452 -0.99860762)
(-1 0 0)
(-0 -0.090273027 -0.99591706)
(-1 0 0)
(0 0.11078332 -0.99384458)
(-1 0 0)
(0 0.030424182 -0.99953708)
(0 0 -1)
(-1 -0 0)
(0 -0.046407528 -0.99892259)
)

// normal volume types

158
(
0
0
0
0
0
0
0
0
0
0
0
0
0
0
0
0
0
0
0
0
0
0
0
0
0
0
0
0
0
0
0
0
0
0
0
0
0
0
0
0
0
0
0
0
0
0
0
0
0
0
0
0
0
0
0
0
0
0
0
0
0
0
0
0
0
0
0
0
0
0
0
0
0
0
0
0
0
0
0
0
0
0
0
0
0
0
0
0
0
0
0
0
0
0
0
0
0
0
0
0
0
0
0
0
0
0
0
0
0
0
0
0
0
0
0
0
0
0
0
0
0
0
0
0
0
0
0
0
0
0
0
0
0
0
0
0
0
0
0
0
0
0
0
0
0
0
0
0
0
0
0
0
0
0
0
0
0
0
)

// normalDirections

85
(
2(1 -1)
2(1 -1)
2(1 -1)
2(1 -1)
2(1 -1)
2(1 -1)
2(1 -1)
2(1 -1)
2(1 -1)
2(1 -1)
2(1 -1)
2(1 -1)
2(1 -1)
2(1 -1)
2(1 -1)
2(1 -1)
2(1 -1)
2(1 -1)
2(1 -1)
2(1 -1)
2(1 -1)
2(1 -1)
2(1 -1)
2(1 -1)
2(1 -1)
2(1 -1)
2(1 -1)
2(1 -1)
2(1 -1)
2(1 -1)
2(1 -1)
2(1 -1)
2(1 -1)
2(1 -1)
2(1 -1)
2(1 -1)
2(1 -1)
2(1 -1)
2(1 -1)
2(1 -1)
2(1 -1)
2(1 -1)
2(1 -1)
2(1 -1)
2(1 -1)
2(1 -1)
2(1 -1)
2(1 -1)
2(1 -1)
2(1 -1)
2(1 -1)
2(1 -1)
2(1 -1)
2(1 -1)
2(1 -1)
2(1 -1)
2(1 -1)
2(1 -1)
2(1 -1)
2(1 -1)
2(1 -1)
2(1 -1)
2(1 -1)
2(1 -1)
2(1 -1)
2(1 -1)
2(1 -1)
2(1 -1)
2(1 -1)
2(1 -1)
2(1 -1)
2(1 -1)
2(1 -1)
2(1 -1)
2(1 -1)
2(1 -1)
2(1 -1)
2(1 -1)
2(1 -1)
2(1 -1)
2(1 -1)
2(1 -1)
2(1 -1)
2(1 -1)
2(1 -1)
)

// edgeNormals

85
(
2(0 1)
2(0 2)
2(3 4)
2(5 6)
2(7 8)
2(9 10)
2(11 12)
2(13 14)
2(15 16)
2(17 18)
2(19 20)
2(21 22)
2(23 24)
2(25 26)
2(27 28)
2(29 30)
2(31 32)
2(31 33)
2(34 35)
2(36 37)
2(38 39)
2(40 41)
2(42 43)
2(44 45)
2(46 47)
2(48 49)
2(50 51)
2(52 53)
2(54 55)
2(56 57)
2(58 59)
2(60 61)
2(62 63)
2(64 65)
2(66 67)
2(68 69)
2(70 71)
2(72 73)
2(74 75)
2(74 76)
2(77 78)
2(79 80)
2(79 81)
2(82 83)
2(82 84)
2(85 86)
2(87 88)
2(89 90)
2(91 92)
2(93 94)
2(95 96)
2(97 98)
2(99 100)
2(101 102)
2(103 104)
2(105 106)
2(107 108)
2(109 110)
2(111 112)
2(113 114)
2(115 116)
2(117 118)
2(119 120)
2(121 122)
2(123 124)
2(125 126)
2(127 128)
2(129 130)
2(131 132)
2(133 134)
2(135 136)
2(137 138)
2(139 140)
2(141 142)
2(143 144)
2(145 146)
2(147 148)
2(149 150)
2(151 152)
2(153 154)
2(153 155)
2(156 157)
2(134 43)
2(118 61)
2(65 150)
)

// featurePointNormals

6
(
3(38 39 43)
3(54 55 61)
3(64 65 69)
3(117 118 144)
3(129 130 134)
3(139 140 150)
)

// featurePointEdges

6
(
3(22 82 20)
3(31 83 28)
3(35 84 33)
3(61 83 74)
3(69 82 67)
3(77 84 72)
)

// regionEdges
0()


// ************************************************************************* //
