/*--------------------------------*- C++ -*----------------------------------*\
| =========                 |                                                 |
| \\      /  F ield         | OpenFOAM: The Open Source CFD Toolbox           |
|  \\    /   O peration     | Version:  3.0.1                                 |
|   \\  /    A nd           | Web:      www.OpenFOAM.org                      |
|    \\/     M anipulation  |                                                 |
\*---------------------------------------------------------------------------*/
FoamFile
{
    version     2.0;
    format      ascii;
    class       featureEdgeMesh;
    location    "constant/triSurface";
    object      sedan.eMesh;
}
// * * * * * * * * * * * * * * * * * * * * * * * * * * * * * * * * * * * * * //


// points:

82
(
(0.032499999 0.152389 0.031338599)
(0.032499999 0.154153 0.0140583)
(0.032499999 0.0027966499 0.0113493)
(-0.032499999 0.154153 0.0140583)
(-0.032499999 0.152389 0.031338599)
(-0.032499999 0.0027966499 0.0113493)
(0.032499999 0.105781 0.010123)
(0.032499999 0.117973 0.0100332)
(0.032499999 0.132865 0.0105797)
(0.032499999 0.134386 0.035773098)
(0.032499999 0.12595201 0.036803599)
(0.032499999 0.109908 0.037587401)
(0.032499999 0.0110977 0.041833099)
(0.032499999 0.00358314 0.036198199)
(0.032499999 0.098797701 0.0432279)
(0.032499999 0.0193254 0.046243601)
(0.032499999 0.0930949 0.045922998)
(0.032499999 0.0279941 0.0493607)
(0.032499999 0.084967002 0.049263)
(0.032499999 0.036995299 0.051266201)
(0.032499999 0.080812298 0.050599299)
(0.032499999 0.043175999 0.051973101)
(0.032499999 0.074461199 0.052014299)
(0.032499999 0.055628899 0.052655499)
(0.032499999 0.068238199 0.052675799)
(0.032499999 0.064046003 0.052807499)
(0.032499999 0.14277899 0.0343167)
(0.032499999 0.00124665 0.033315301)
(0.032499999 0.00040276299 0.030036701)
(0.032499999 0.15349799 0.0269567)
(0.032499999 0.000533743 0.0264611)
(0.032499999 0.154153 0.0225299)
(0.032499999 0.00034109899 0.0203797)
(0.032499999 0.154355 0.018314101)
(0.032499999 -1.11022e-19 0.017658001)
(0.032499999 6.4731801e-05 0.0152431)
(0.032499999 0.000315635 0.0141031)
(0.032499999 0.14161 0.0115545)
(0.032499999 0.0010363701 0.0126354)
(0.032499999 0.0055006598 0.0111042)
(0.032499999 0.0212183 0.0102739)
(0.032499999 0.089642197 0.010123)
(0.032499999 0.039904598 0.0094057797)
(0.032499999 0.066079102 0.0094057797)
(-0.032499999 0.117973 0.0100332)
(-0.032499999 0.105781 0.010123)
(-0.032499999 0.132865 0.0105797)
(-0.032499999 0.064046003 0.052807499)
(-0.032499999 0.068238199 0.052675799)
(-0.032499999 0.055628899 0.052655499)
(-0.032499999 0.074461199 0.052014299)
(-0.032499999 0.043175999 0.051973101)
(-0.032499999 0.080812298 0.050599299)
(-0.032499999 0.036995299 0.051266201)
(-0.032499999 0.084967002 0.049263)
(-0.032499999 0.0279941 0.0493607)
(-0.032499999 0.0930949 0.045922998)
(-0.032499999 0.0193254 0.046243601)
(-0.032499999 0.098797701 0.0432279)
(-0.032499999 0.0110977 0.041833099)
(-0.032499999 0.109908 0.037587401)
(-0.032499999 0.00358314 0.036198199)
(-0.032499999 0.12595201 0.036803599)
(-0.032499999 0.134386 0.035773098)
(-0.032499999 0.000315635 0.0141031)
(-0.032499999 6.4731801e-05 0.0152431)
(-0.032499999 -1.11022e-19 0.017658001)
(-0.032499999 0.154355 0.018314101)
(-0.032499999 0.00034109899 0.0203797)
(-0.032499999 0.154153 0.0225299)
(-0.032499999 0.000533743 0.0264611)
(-0.032499999 0.15349799 0.0269567)
(-0.032499999 0.00040276299 0.030036701)
(-0.032499999 0.00124665 0.033315301)
(-0.032499999 0.14277899 0.0343167)
(-0.032499999 0.0010363701 0.0126354)
(-0.032499999 0.14161 0.0115545)
(-0.032499999 0.089642197 0.010123)
(-0.032499999 0.0212183 0.0102739)
(-0.032499999 0.0055006598 0.0111042)
(-0.032499999 0.066079102 0.0094057797)
(-0.032499999 0.039904598 0.0094057797)
)


// edges:

85
(
(6 7)
(7 8)
(9 10)
(10 11)
(12 13)
(11 14)
(15 12)
(14 16)
(17 15)
(16 18)
(19 17)
(18 20)
(21 19)
(20 22)
(23 21)
(22 24)
(24 25)
(25 23)
(26 9)
(13 27)
(0 26)
(27 28)
(29 0)
(28 30)
(31 29)
(30 32)
(33 31)
(32 34)
(1 33)
(34 35)
(35 36)
(37 1)
(36 38)
(38 2)
(8 37)
(2 39)
(39 40)
(41 6)
(42 43)
(43 41)
(40 42)
(44 45)
(46 44)
(47 48)
(49 47)
(48 50)
(51 49)
(50 52)
(53 51)
(52 54)
(55 53)
(54 56)
(57 55)
(56 58)
(59 57)
(58 60)
(61 59)
(60 62)
(62 63)
(64 65)
(65 66)
(67 3)
(66 68)
(69 67)
(68 70)
(71 69)
(70 72)
(4 71)
(72 73)
(74 4)
(73 61)
(63 74)
(5 75)
(75 64)
(3 76)
(45 77)
(78 79)
(79 5)
(76 46)
(77 80)
(80 81)
(81 78)
(0 4)
(1 3)
(5 2)
)

// * * * * * * * * * * * * * * * * * * * * * * * * * * * * * * * * * * * * * //


// ************************************************************************* //
