/*--------------------------------*- C++ -*----------------------------------*\
| =========                 |                                                 |
| \\      /  F ield         | OpenFOAM: The Open Source CFD Toolbox           |
|  \\    /   O peration     | Version:  3.0.1                                 |
|   \\  /    A nd           | Web:      www.OpenFOAM.org                      |
|    \\/     M anipulation  |                                                 |
\*---------------------------------------------------------------------------*/
FoamFile
{
    version     2.0;
    format      ascii;
    class       extendedFeatureEdgeMesh;
    location    "constant/extendedFeatureEdgeMesh";
    object      car.extendedFeatureEdgeMesh;
}
// * * * * * * * * * * * * * * * * * * * * * * * * * * * * * * * * * * * * * //

// points

38
(
(0.1 -0.46569401 -0.103499)
(0.1 0.334306 -0.103499)
(0.1 -0.46569401 0.22002099)
(0.1 0.334306 0.22002099)
(-0.1 -0.46569401 -0.103499)
(-0.1 -0.46569401 0.22002099)
(-0.1 0.334306 -0.103499)
(-0.1 0.334306 0.22002099)
(-0.029999999 0.0290915 -0.0129273)
(-0.029999999 -0.120909 -0.0088234004)
(-0.029999999 -0.120909 0.0215455)
(-0.029999999 0.0290915 0.0215455)
(-0.029999999 -0.0090910001 0.056728199)
(-0.029999999 -0.074025601 0.056728199)
(0.029999999 -0.120909 -0.0088234004)
(0.029999999 0.0290915 -0.0129273)
(0.029999999 -0.120909 0.0215455)
(0.029999999 -0.074025601 0.056728199)
(0.029999999 -0.0090910001 0.056728199)
(0.029999999 0.0290915 0.0215455)
(-0.029999999 -0.052640401 -0.0129273)
(-0.029999999 0.0131134 0.023371199)
(-0.029999999 0.0075639598 0.0246267)
(-0.029999999 0.00241597 0.0270497)
(-0.029999999 -0.00208812 0.030526301)
(-0.029999999 -0.0057362001 0.0348926)
(-0.029999999 -0.0083564799 0.039942998)
(-0.029999999 -0.0098255901 0.045439798)
(-0.029999999 -0.0100743 0.0511241)
(0.029999999 -0.052640401 -0.0129273)
(0.029999999 -0.0100743 0.0511241)
(0.029999999 -0.0098255901 0.045439798)
(0.029999999 -0.0083564799 0.039942998)
(0.029999999 -0.0057362001 0.0348926)
(0.029999999 -0.00208812 0.030526301)
(0.029999999 0.00241597 0.0270497)
(0.029999999 0.0075639598 0.0246267)
(0.029999999 0.0131134 0.023371199)
)

// edges

48
(
(0 1)
(2 0)
(3 2)
(1 3)
(6 4)
(4 5)
(5 7)
(7 6)
(5 2)
(3 7)
(1 6)
(0 4)
(9 20)
(20 8)
(10 9)
(8 11)
(11 21)
(21 22)
(22 23)
(23 24)
(24 25)
(25 26)
(26 27)
(27 28)
(28 12)
(13 10)
(12 13)
(29 14)
(15 29)
(16 17)
(17 18)
(18 30)
(30 31)
(31 32)
(32 33)
(33 34)
(34 35)
(35 36)
(36 37)
(37 19)
(19 15)
(14 16)
(9 14)
(10 16)
(13 17)
(12 18)
(11 19)
(8 15)
)

// concaveStart mixedStart nonFeatureStart
8 20 20
// internalStart flatStart openStart multipleStart
12 48 48 48
// normals

68
(
(1 0 0)
(-0 -0 -1)
(-0 -1 -0)
(1 -0 0)
(0 -0 1)
(0 1 -0)
(-1 0 0)
(0 0 -1)
(0 -1 0)
(-1 0 0)
(0 0 1)
(0 1 0)
(1 0 -0)
(-0 0.060005698 0.99819803)
(0 0 1)
(1 0 0)
(0 1 0)
(1 -0 0)
(0 -1 0)
(1 0 0)
(0 -0.11352394 -0.99353526)
(1 0 0)
(0 -0.22066248 -0.97535023)
(1 0 0)
(0 -0.42585691 -0.90479052)
(1 0 0)
(0 -0.61102572 -0.79161075)
(1 0 0)
(0 -0.76739971 -0.641169)
(1 0 0)
(0 -0.88764284 -0.4605325)
(1 0 0)
(0 -0.96609053 -0.25820357)
(1 0 0)
(0 -0.99904418 -0.043711964)
(1 0 0)
(0 -0.9849533 0.17282068)
(1 0 0)
(0 0.60022001 -0.79983495)
(0 0 -1)
(-1 0 0)
(-0 0.060005698 0.99819803)
(-0 0 1)
(-1 0 0)
(0 0.60022001 -0.79983495)
(0 0 -1)
(-1 0 0)
(0 -0.9849533 0.17282068)
(-1 0 0)
(0 -0.99904418 -0.043711964)
(-1 0 0)
(0 -0.96609053 -0.25820357)
(-1 0 0)
(0 -0.88764284 -0.4605325)
(-1 0 0)
(0 -0.76739971 -0.641169)
(-1 0 0)
(0 -0.61102572 -0.79161075)
(-1 0 0)
(0 -0.42585691 -0.90479052)
(-1 0 0)
(0 -0.22066248 -0.97535023)
(-1 0 0)
(-0 -0.11352394 -0.99353526)
(-1 0 0)
(0 -1 0)
(-1 0 0)
(0 1 0)
)

// normal volume types

68
(
0
0
0
0
0
0
0
0
0
0
0
0
0
0
0
0
0
0
0
0
0
0
0
0
0
0
0
0
0
0
0
0
0
0
0
0
0
0
0
0
0
0
0
0
0
0
0
0
0
0
0
0
0
0
0
0
0
0
0
0
0
0
0
0
0
0
0
0
)

// normalDirections

48
(
2(1 -1)
2(1 -1)
2(1 -1)
2(1 -1)
2(1 -1)
2(1 -1)
2(1 -1)
2(1 -1)
2(1 -1)
2(1 -1)
2(1 -1)
2(1 -1)
2(1 -1)
2(1 -1)
2(1 -1)
2(1 -1)
2(1 -1)
2(1 -1)
2(1 -1)
2(1 -1)
2(1 -1)
2(1 -1)
2(1 -1)
2(1 -1)
2(1 -1)
2(1 -1)
2(1 -1)
2(1 -1)
2(1 -1)
2(1 -1)
2(1 -1)
2(1 -1)
2(1 -1)
2(1 -1)
2(1 -1)
2(1 -1)
2(1 -1)
2(1 -1)
2(1 -1)
2(1 -1)
2(1 -1)
2(1 -1)
2(1 -1)
2(1 -1)
2(1 -1)
2(1 -1)
2(1 -1)
2(1 -1)
)

// edgeNormals

48
(
2(0 1)
2(0 2)
2(3 4)
2(3 5)
2(6 7)
2(6 8)
2(9 10)
2(9 11)
2(4 2)
2(10 11)
2(5 1)
2(7 8)
2(12 13)
2(12 14)
2(15 16)
2(17 18)
2(19 20)
2(21 22)
2(23 24)
2(25 26)
2(27 28)
2(29 30)
2(31 32)
2(33 34)
2(35 36)
2(37 38)
2(37 39)
2(40 41)
2(40 42)
2(43 44)
2(43 45)
2(46 47)
2(48 49)
2(50 51)
2(52 53)
2(54 55)
2(56 57)
2(58 59)
2(60 61)
2(62 63)
2(64 65)
2(66 67)
2(13 16)
2(67 38)
2(44 45)
2(39 47)
2(63 18)
2(65 42)
)

// featurePointNormals

20
(
3(0 1 2)
3(0 1 5)
3(0 2 4)
3(3 4 5)
3(6 7 8)
3(6 8 10)
3(6 7 11)
3(9 10 11)
3(12 14 18)
3(12 13 16)
3(15 16 38)
3(17 18 20)
3(35 36 39)
3(37 38 39)
3(40 41 67)
3(40 42 65)
3(43 44 67)
3(43 44 45)
3(43 45 47)
3(62 63 65)
)

// featurePointEdges

20
(
3(0 11 1)
3(3 10 0)
3(2 8 1)
3(2 9 3)
3(4 11 5)
3(6 8 5)
3(7 10 4)
3(6 9 7)
3(15 47 13)
3(14 42 12)
3(25 43 14)
3(16 46 15)
3(26 45 24)
3(25 44 26)
3(41 42 27)
3(40 47 28)
3(41 43 29)
3(29 44 30)
3(31 45 30)
3(40 46 39)
)

// regionEdges
0()


// ************************************************************************* //
