/*--------------------------------*- C++ -*----------------------------------*\
| =========                 |                                                 |
| \\      /  F ield         | OpenFOAM: The Open Source CFD Toolbox           |
|  \\    /   O peration     | Version:  3.0.1                                 |
|   \\  /    A nd           | Web:      www.OpenFOAM.org                      |
|    \\/     M anipulation  |                                                 |
\*---------------------------------------------------------------------------*/
FoamFile
{
    version     2.0;
    format      ascii;
    class       featureEdgeMesh;
    location    "constant/triSurface";
    object      car.eMesh;
}
// * * * * * * * * * * * * * * * * * * * * * * * * * * * * * * * * * * * * * //


// points:

38
(
(0.1 -0.46569401 -0.103499)
(0.1 0.334306 -0.103499)
(0.1 -0.46569401 0.22002099)
(0.1 0.334306 0.22002099)
(-0.1 -0.46569401 -0.103499)
(-0.1 -0.46569401 0.22002099)
(-0.1 0.334306 -0.103499)
(-0.1 0.334306 0.22002099)
(-0.029999999 0.0290915 -0.0129273)
(-0.029999999 -0.120909 -0.0088234004)
(-0.029999999 -0.120909 0.0215455)
(-0.029999999 0.0290915 0.0215455)
(-0.029999999 -0.0090910001 0.056728199)
(-0.029999999 -0.074025601 0.056728199)
(0.029999999 -0.120909 -0.0088234004)
(0.029999999 0.0290915 -0.0129273)
(0.029999999 -0.120909 0.0215455)
(0.029999999 -0.074025601 0.056728199)
(0.029999999 -0.0090910001 0.056728199)
(0.029999999 0.0290915 0.0215455)
(-0.029999999 -0.052640401 -0.0129273)
(-0.029999999 0.0131134 0.023371199)
(-0.029999999 0.0075639598 0.0246267)
(-0.029999999 0.00241597 0.0270497)
(-0.029999999 -0.00208812 0.030526301)
(-0.029999999 -0.0057362001 0.0348926)
(-0.029999999 -0.0083564799 0.039942998)
(-0.029999999 -0.0098255901 0.045439798)
(-0.029999999 -0.0100743 0.0511241)
(0.029999999 -0.052640401 -0.0129273)
(0.029999999 -0.0100743 0.0511241)
(0.029999999 -0.0098255901 0.045439798)
(0.029999999 -0.0083564799 0.039942998)
(0.029999999 -0.0057362001 0.0348926)
(0.029999999 -0.00208812 0.030526301)
(0.029999999 0.00241597 0.0270497)
(0.029999999 0.0075639598 0.0246267)
(0.029999999 0.0131134 0.023371199)
)


// edges:

48
(
(0 1)
(2 0)
(3 2)
(1 3)
(6 4)
(4 5)
(5 7)
(7 6)
(5 2)
(3 7)
(1 6)
(0 4)
(9 20)
(20 8)
(10 9)
(8 11)
(11 21)
(21 22)
(22 23)
(23 24)
(24 25)
(25 26)
(26 27)
(27 28)
(28 12)
(13 10)
(12 13)
(29 14)
(15 29)
(16 17)
(17 18)
(18 30)
(30 31)
(31 32)
(32 33)
(33 34)
(34 35)
(35 36)
(36 37)
(37 19)
(19 15)
(14 16)
(9 14)
(10 16)
(13 17)
(12 18)
(11 19)
(8 15)
)

// * * * * * * * * * * * * * * * * * * * * * * * * * * * * * * * * * * * * * //


// ************************************************************************* //
